## Dimension of the problem
6
 0 -0  3  0  0 10
 1 -1  9  1 -1 0
-3  0 -9 -1  1 9
 2  1  1  3 -10 9
 3  0 -0  0 -3 0
 9  3  1  2 -0 3
## x boundary (known:1, unknown:0)
1   1.
1   1.
1   3.
0   6.
0  9.
0   6.
## y boundary (known:1, unknown:0)
0   3
0   3
0   0
1   3
1   0
1   0



## Solve

 A.x = y
